  
  -OEChem-12192413473D

 16 16  0     0  0  0  0  0  0999 V2000
    2.7374    1.0976   -0.0007 O   0  5  0  0  0  0  0  0  0  0  0  0
    2.7373   -1.0976    0.0003 O   0  0  0  0  0  0  0  0  0  0  0  0
    2.1292    0.0000   -0.0001 N   0  3  0  0  0  0  0  0  0  0  0  0
   -3.4908   -0.0001    0.0001 N   0  0  0  0  0  0  0  0  0  0  0  0
    0.7093    0.0000    0.0005 C   0  0  0  0  0  0  0  0  0  0  0  0
   -2.0804    0.0000   -0.0005 C   0  0  0  0  0  0  0  0  0  0  0  0
    0.0120    1.2080    0.0005 C   0  0  0  0  0  0  0  0  0  0  0  0
    0.0119   -1.2080    0.0001 C   0  0  0  0  0  0  0  0  0  0  0  0
   -1.3829    1.2080    0.0000 C   0  0  0  0  0  0  0  0  0  0  0  0
   -1.3830   -1.2079   -0.0004 C   0  0  0  0  0  0  0  0  0  0  0  0
    0.5219    2.1680    0.0008 H   0  0  0  0  0  0  0  0  0  0  0  0
    0.5218   -2.1680    0.0000 H   0  0  0  0  0  0  0  0  0  0  0  0
   -1.9154    2.1558    0.0003 H   0  0  0  0  0  0  0  0  0  0  0  0
   -1.9154   -2.1557   -0.0006 H   0  0  0  0  0  0  0  0  0  0  0  0
   -3.9970    0.8755   -0.0016 H   0  0  0  0  0  0  0  0  0  0  0  0
   -3.9970   -0.8756   -0.0019 H   0  0  0  0  0  0  0  0  0  0  0  0
  1  3  1  0  0  0  0
  2  3  2  0  0  0  0
  3  5  1  0  0  0  0
  4  6  1  0  0  0  0
  4 15  1  0  0  0  0
  4 16  1  0  0  0  0
  5  7  2  0  0  0  0
  5  8  1  0  0  0  0
  6  9  2  0  0  0  0
  6 10  1  0  0  0  0
  7  9  1  0  0  0  0
  7 11  1  0  0  0  0
  8 10  2  0  0  0  0
  8 12  1  0  0  0  0
  9 13  1  0  0  0  0
 10 14  1  0  0  0  0
M  CHG  2   1  -1   3   1
M  END