79

Zn        -0.00001        1.50940        1.21829
Zn        -1.30719        3.77351        1.21829
Zn        -2.61437        6.03761        1.21829
Zn        -3.92155        8.30171        1.21829
Zn         2.61435        1.50940        1.21829
Zn         1.30717        3.77351        1.21829
Zn        -0.00001        6.03761        1.21829
Zn        -1.30719        8.30171        1.21829
Zn         5.22871        1.50940        1.21829
Zn         3.92153        3.77351        1.21829
Zn         2.61435        6.03761        1.21829
Zn         1.30717        8.30171        1.21829
Zn         7.84307        1.50940        1.21829
Zn         6.53589        3.77351        1.21829
Zn         5.22871        6.03761        1.21829
Zn         3.92153        8.30171        1.21829
Zn        -0.00001        1.50940        3.65486
Zn        -1.30719        3.77351        3.65486
Zn        -2.61437        6.03761        3.65486
Zn        -3.92155        8.30171        3.65486
Zn         2.61435        1.50940        3.65486
Zn         1.30717        3.77351        3.65486
Zn        -0.00001        6.03761        3.65486
Zn        -1.30719        8.30171        3.65486
Zn         5.22871        1.50940        3.65486
Zn         3.92153        3.77351        3.65486
Zn         2.61435        6.03761        3.65486
Zn         1.30717        8.30171        3.65486
Zn         7.84307        1.50940        3.65486
Zn         6.53589        3.77351        3.65486
Zn         5.22871        6.03761        3.65486
Zn         3.92153        8.30171        3.65486
Zn         1.30719        0.75470        1.21829
Zn         0.00001        3.01880        1.21829
Zn        -1.30717        5.28290        1.21829
Zn        -2.61435        7.54700        1.21829
Zn         3.92155        0.75470        1.21829
Zn         2.61437        3.01880        1.21829
Zn         1.30719        5.28290        1.21829
Zn         0.00001        7.54700        1.21829
Zn         6.53591        0.75470        1.21829
Zn         5.22873        3.01880        1.21829
Zn         3.92155        5.28290        1.21829
Zn         2.61437        7.54700        1.21829
Zn         9.15027        0.75470        1.21829
Zn         7.84309        3.01880        1.21829
Zn         6.53591        5.28290        1.21829
Zn         5.22873        7.54700        1.21829
Zn         1.30719        0.75470        3.65486
Zn         0.00001        3.01880        3.65486
Zn        -1.30717        5.28290        3.65486
Zn        -2.61435        7.54700        3.65486
Zn         3.92155        0.75470        3.65486
Zn         2.61437        3.01880        3.65486
Zn         1.30719        5.28290        3.65486
Zn         0.00001        7.54700        3.65486
Zn         6.53591        0.75470        3.65486
Zn         5.22873        3.01880        3.65486
Zn         3.92155        5.28290        3.65486
Zn         2.61437        7.54700        3.65486
Zn         9.15027        0.75470        3.65486
Zn         7.84309        3.01880        3.65486
Zn         6.53591        5.28290        3.65486
Zn         5.22873        7.54700        3.65486
C          3.33225        2.31960       11.27185
C          3.44522        2.58144        9.87669
C          2.39361        3.20138        9.17320
C          4.61105        2.22621        9.16975
C          2.50248        3.45671        7.81579
C          4.72198        2.48052        7.81231
C          3.66962        3.10176        7.10502
N          3.23966        2.10478       12.41587
N          3.77811        3.35319        5.76379
H          3.02947        3.79815        5.25460
H          4.61060        3.10275        5.25202
H          5.43284        1.74605        9.69990
H          1.48574        3.48205        9.70617
H          5.63301        2.19810        7.28151
H          1.67718        3.93783        7.28778
