79

Zn         1.78689        0.70225        0.27643
Zn         2.74314        3.13545        0.27643
Zn         3.69940        5.56865        0.27643
Zn         4.65566        8.00184        0.27643
Zn         5.36065        0.70225        0.27643
Zn         6.31691        3.13545        0.27643
Zn         7.27317        5.56865        0.27643
Zn         8.22942        8.00184        0.27643
Zn         8.93442        0.70225        0.27643
Zn         9.89067        3.13545        0.27643
Zn        10.84693        5.56865        0.27643
Zn        11.80319        8.00184        0.27643
Zn        12.50818        0.70225        0.27643
Zn        13.46444        3.13545        0.27643
Zn        14.42070        5.56865        0.27643
Zn        15.37695        8.00184        0.27643
Zn         2.49187        0.42519        3.04075
Zn         3.44813        2.85839        3.04075
Zn         4.40439        5.29158        3.04075
Zn         5.36064        7.72478        3.04075
Zn         6.06564        0.42519        3.04075
Zn         7.02190        2.85839        3.04075
Zn         7.97815        5.29158        3.04075
Zn         8.93441        7.72478        3.04075
Zn         9.63940        0.42519        3.04075
Zn        10.59566        2.85839        3.04075
Zn        11.55192        5.29158        3.04075
Zn        12.50818        7.72478        3.04075
Zn        13.21317        0.42519        3.04075
Zn        14.16943        2.85839        3.04075
Zn        15.12568        5.29158        3.04075
Zn        16.08194        7.72478        3.04075
Zn         3.44814        0.04937        1.93502
Zn         4.40439        2.48257        1.93502
Zn         5.36065        4.91576        1.93502
Zn         6.31691        7.34896        1.93502
Zn         7.02190        0.04937        1.93502
Zn         7.97816        2.48257        1.93502
Zn         8.93442        4.91576        1.93502
Zn         9.89067        7.34896        1.93502
Zn        10.59567        0.04937        1.93502
Zn        11.55193        2.48257        1.93502
Zn        12.50818        4.91576        1.93502
Zn        13.46444        7.34896        1.93502
Zn        14.16943        0.04937        1.93502
Zn        15.12569        2.48257        1.93502
Zn        16.08195        4.91576        1.93502
Zn        17.03821        7.34896        1.93502
Zn         0.83062        1.07807        1.38215
Zn         1.78688        3.51127        1.38215
Zn         2.74314        5.94447        1.38215
Zn         3.69939        8.37766        1.38215
Zn         4.40439        1.07807        1.38215
Zn         5.36065        3.51127        1.38215
Zn         6.31690        5.94447        1.38215
Zn         7.27316        8.37766        1.38215
Zn         7.97815        1.07807        1.38215
Zn         8.93441        3.51127        1.38215
Zn         9.89067        5.94447        1.38215
Zn        10.84692        8.37766        1.38215
Zn        11.55192        1.07807        1.38215
Zn        12.50818        3.51127        1.38215
Zn        13.46443        5.94447        1.38215
Zn        14.42069        8.37766        1.38215
C          8.32032        5.58796        7.24019
C          8.25575        5.18935        8.56555
C          9.27931        5.03361        6.36479
C          9.14571        4.22117        9.07126
C          9.07853        3.81237       10.43368
C         10.16992        4.06350        6.87398
C         10.10364        3.66639        8.19977
N          9.34379        5.42640        5.05499
N          9.02335        3.47697       11.55078
H          7.62238        6.33939        6.86651
H          7.50954        5.62761        9.22744
H          8.71057        6.12023        4.68716
H         10.91895        3.62243        6.21373
H         10.79871        2.91653        8.57600
H         10.02820        5.03424        4.42614
