19
Coordinates from ORCA-job zinc_hydrate_1
  Zn          1.06028489168992      1.04745709979030      1.12193280249906
  H           0.51924727438020     -2.17250037388883     -1.93265459030441
  O           0.37237671941353     -1.24595634172938     -2.18339222145496
  H          -0.58624393375990     -1.12054718681151     -2.10351044681208
  H           1.91920396297197      2.95185348685773     -1.87464837807681
  O           1.95141212475378      3.69520985924641     -1.24632365908774
  H           2.67693353694055      4.25624491325009     -1.54963081790768
  H           2.02849156754793      3.10379559503066      0.20573639311558
  O           1.95900567605809      2.80135123764596      1.17490088100769
  H           2.85971424552997      2.79818620022355      1.54353896270377
  H           1.38854659150251     -1.44061418664845      1.89726566930898
  O           1.33519828257413     -0.56790278157134      2.33223006293253
  H           2.11600816630446     -0.52532731225140      2.90905241081298
  H          -0.68810446182782      0.91587460699851      2.92204759790852
  O          -0.49994140762103      1.61303284325488      2.27095825445933
  H          -0.20932909311487      2.37275681848641      2.80401454051947
  H           1.16384501052626     -0.26524483108321     -1.23512595477350
  O           1.64980369088049      0.37264748560923     -0.62537280635864
  H           2.59714715524975      0.36438286759035     -0.82181870049207
