83
 Atoms. Timestep: 200005
C 3.36385 -1.99584 0.386459
C 3.66055 -0.572846 0.435208
C 3.24083 0.192357 1.52993
C 2.65579 -2.60009 1.43241
C 3.06154 -2.34719 -0.994117
C 3.52891 -0.044316 -0.915537
C 2.68634 1.51935 1.31925
C 2.49219 -0.434311 2.60563
C 1.61945 -3.57839 1.13966
C 2.20962 -1.80097 2.56343
C 2.06732 -3.28952 -1.27468
C 3.1625 -1.13814 -1.79683
C 2.96525 1.21888 -1.11221
C 1.58281 1.70918 2.24615
C 2.55208 2.00834 0.021757
C 1.46576 0.505387 3.03265
C 1.33369 -3.91928 -0.186634
C 0.534464 -3.38568 2.09143
C 0.894996 -2.28044 2.96586
C 1.13794 -3.06222 -2.37168
C 2.2599 -0.909713 -2.83933
C 2.00935 1.46506 -2.17527
C 0.467253 2.47722 1.87801
C 1.41956 2.82564 -0.343398
C 0.201739 0.05572 3.3997
C -0.047186 -4.08725 -0.613747
C -0.793056 -3.54695 1.68045
C -0.084585 -1.37201 3.38264
C -0.16724 -3.56163 -1.96546
C 1.23252 -1.89436 -3.1382
C 1.68026 0.413826 -3.03167
C 1.00726 2.43337 -1.70273
C 0.575612 3.29583 0.669034
C -0.886608 1.96651 2.18929
C -0.98028 0.783077 2.96108
C -1.08994 -3.90896 0.301612
C -1.81255 -2.61139 2.1291
C -1.45958 -1.53957 2.95751
C -1.32709 -2.88258 -2.35126
C 0.026716 -1.18089 -3.52921
C 0.306923 0.247335 -3.45636
C -0.337138 2.27445 -2.12066
C -1.50375 3.04089 0.03062
C -1.90782 2.18383 1.14331
C -2.01309 -0.214793 2.71689
C -2.29806 -3.2046 -0.099515
C -2.74662 -2.40642 1.03165
C -2.41515 -2.70095 -1.40056
C -1.22687 -1.67322 -3.15453
C -0.665071 1.14123 -3.00315
C -1.51406 2.47096 -1.24894
C -2.83731 1.16909 0.878878
C -2.91733 -0.030678 1.67699
C -3.29656 -1.14096 0.816219
C -2.99147 -1.38385 -1.62202
C -2.2503 -0.749007 -2.70221
C -1.96738 0.618334 -2.63686
C -2.44353 1.40099 -1.52375
C -3.16361 0.805672 -0.48959
C -3.43391 -0.621621 -0.534234
H 1.01079 5.70594 4.39439
C -0.025016 6.07921 4.37886
H -0.14197 6.8071 5.19798
H 0.317939 7.60819 2.86708
C -0.341423 6.74847 3.05268
O -0.093766 5.86121 1.93801
H -0.708809 5.23855 4.56885
C -1.06594 5.01385 1.58305
C -0.593688 4.18199 0.364946
O -2.14368 4.9339 2.10853
H -1.38979 7.07988 3.01259
C -0.375757 5.20146 -0.774825
H -3.62271 6.46433 -2.59559
O -1.546 5.77178 -1.08241
H -1.12736 6.33894 -3.0339
O 0.675863 5.47844 -1.28485
C -1.53396 6.78416 -2.1116
C -2.95187 7.28287 -2.29224
H -2.97708 8.05869 -3.07354
H -3.33996 7.71875 -1.3586
H -0.84376 7.58709 -1.80568
O -0.861838 8.58288 6.46846
O -1.23211 9.02258 5.42314
