40
Coordinates from ORCA-job honokiol_o2_9
  O           0.20580664724135      2.09412981884413     -1.75366110135502
  O          -4.08579075339634     -1.33228111572437      1.31637747041486
  C           1.04213944788267      0.50070868244900     -0.22417810960317
  C          -0.31578169267928      0.05773237029672      0.18440569339628
  C          -2.58418423782425     -0.64200635372689     -0.38162767664457
  C          -1.32838832132499     -0.18230798135839     -0.74410129564765
  C           3.45244503325527      0.27024240184685      0.04252034011615
  C           2.15382657457003     -0.09415066168111      0.36501504771200
  C           1.24039888723657      1.50909865935937     -1.19310237268776
  C          -0.61334088388068     -0.17321082981814      1.52239242454088
  C          -2.84309687422930     -0.87103017145356      0.96775161119269
  C          -3.66546416554952     -0.84722925301858     -1.41619505086556
  C           4.63732243938945     -0.40307556685233      0.70114175044755
  C           3.61547095847046      1.26730109078768     -0.91268578705515
  C          -1.85963374734835     -0.63785148022380      1.91307498642176
  C           2.53584686163477      1.87941393803636     -1.52197451699398
  C          -4.55097882373582      0.36115868825054     -1.54293441819425
  C           4.69166391671229     -1.87953665279091      0.44320329136925
  C          -5.85862762051937      0.36754065795406     -1.33941152200597
  C           4.72397675347268     -2.81755707400328      1.37797862979492
  H          -1.12593926072281      0.00830603843509     -1.78993628892814
  H           1.99431003323098     -0.89223419737981      1.08468496854313
  H           0.13707786473569      0.02562150947557      2.27818652708048
  H          -3.18750165350169     -1.03675167592771     -2.38059668626907
  H          -4.27074411569122     -1.72134767711180     -1.16869251766329
  H           5.55430248262228      0.05664186605311      0.31808432513675
  H           4.62852004511383     -0.22971988513909      1.78231471297286
  H           4.61736245893075      1.58140761592306     -1.19137589421035
  H          -2.07097166693302     -0.81062097005300      2.96458686958559
  H           2.69771805311765      2.66973162640025     -2.24266496749021
  H          -4.04265569639643      1.28438903617009     -1.81151471867660
  H           4.67933411968468     -2.17264227514556     -0.60401658336476
  H           0.49709258169276      2.72551875824625     -2.55776612650192
  H          -4.13161671027794     -1.39480531834200      2.27114523032225
  H          -6.44143428933235      1.27491990263690     -1.44100107838437
  H          -6.38846853210923     -0.53365864990745     -1.04754892702153
  H           4.74748937743008     -3.87095614557664      1.12611075412850
  H           4.71578823412019     -2.56204439721962      2.43265443194592
  O           1.42164460105621      4.44546814311351     -3.08896443824098
  O           0.88614767385191      3.47965552817549     -3.78981798731750
