63

Zn         1.21829        1.30717        0.75471
Zn         1.21829        3.92153        0.75471
Zn         1.21829        6.53589        0.75471
Zn         1.21829        9.15025        0.75471
Zn         1.21829       11.76461        0.75471
Zn         6.09146        1.30717        0.75471
Zn         6.09146        3.92153        0.75471
Zn         6.09146        6.53589        0.75471
Zn         6.09146        9.15025        0.75471
Zn         6.09146       11.76461        0.75471
Zn        10.96461        1.30717        0.75471
Zn        10.96461        3.92153        0.75471
Zn        10.96461        6.53589        0.75471
Zn        10.96461        9.15025        0.75471
Zn        10.96461       11.76461        0.75471
Zn         1.21829       -0.00001        3.01881
Zn         1.21829        2.61435        3.01881
Zn         1.21829        5.22871        3.01881
Zn         1.21829        7.84307        3.01881
Zn         1.21829       10.45743        3.01881
Zn         6.09146       -0.00001        3.01881
Zn         6.09146        2.61435        3.01881
Zn         6.09146        5.22871        3.01881
Zn         6.09146        7.84307        3.01881
Zn         6.09146       10.45743        3.01881
Zn        10.96461       -0.00001        3.01881
Zn        10.96461        2.61435        3.01881
Zn        10.96461        5.22871        3.01881
Zn        10.96461        7.84307        3.01881
Zn        10.96461       10.45743        3.01881
Zn         3.65487        0.00001        1.50939
Zn         3.65487        2.61437        1.50939
Zn         3.65487        5.22873        1.50939
Zn         3.65487        7.84309        1.50939
Zn         3.65487       10.45745        1.50939
Zn         8.52803        0.00001        1.50939
Zn         8.52803        2.61437        1.50939
Zn         8.52803        5.22873        1.50939
Zn         8.52803        7.84309        1.50939
Zn         8.52803       10.45745        1.50939
Zn        13.40120        0.00001        1.50939
Zn        13.40120        2.61437        1.50939
Zn        13.40120        5.22873        1.50939
Zn        13.40120        7.84309        1.50939
Zn        13.40120       10.45745        1.50939
Zn         3.65487       -1.30717        3.77349
Zn         3.65487        1.30719        3.77349
Zn         3.65487        3.92155        3.77349
Zn         3.65487        6.53591        3.77349
Zn         3.65487        9.15027        3.77349
Zn         8.52803       -1.30717        3.77349
Zn         8.52803        1.30719        3.77349
Zn         8.52803        3.92155        3.77349
Zn         8.52803        6.53591        3.77349
Zn         8.52803        9.15027        3.77349
Zn        13.40120       -1.30717        3.77349
Zn        13.40120        1.30719        3.77349
Zn        13.40120        3.92155        3.77349
Zn        13.40120        6.53591        3.77349
Zn        13.40120        9.15027        3.77349
O          6.38035        5.42276        4.38563
H          5.58942        5.01173        4.76852
H          7.00668        5.46954        5.12508
